@<TRIPOS>MOLECULE
AMA
233 234 1 0 0
SMALL
NO_CHARGES


@<TRIPOS>ATOM
      1 C1        -14.5708  -25.1310   48.9320 C.3       1 AMA    0.0000
      2 C2        -14.8749  -26.5529   48.4556 C.3       1 AMA    0.0000
      3 C3        -13.5631  -27.2470   48.0824 C.3       1 AMA    0.0000
      4 C4        -13.8759  -28.6275   47.5030 C.3       1 AMA    0.0000
      5 C5        -12.8197  -28.9826   46.4536 C.3       1 AMA    0.0000
      6 C6        -12.1618  -27.7091   45.9186 C.3       1 AMA    0.0000
      7 C7        -11.5525  -27.9954   44.5454 C.3       1 AMA    0.0000
      8 C8        -10.0477  -27.7202   44.5736 C.3       1 AMA    0.0000
      9 C9         -9.2784  -28.9158   45.1368 C.3       1 AMA    0.0000
     10 C10        -7.7780  -28.6614   44.9800 C.3       1 AMA    0.0000
     11 C11        -7.0097  -29.8875   45.4787 C.3       1 AMA    0.0000
     12 C12        -5.5389  -29.7529   45.0790 C.3       1 AMA    0.0000
     13 C13        -4.8535  -31.1110   45.2359 C.3       1 AMA    0.0000
     14 C14        -3.3563  -30.8965   45.4680 C.3       1 AMA    0.0000
     15 C15        -2.6850  -32.2557   45.6726 C.3       1 AMA    0.0000
     16 C16        -1.1701  -32.0940   45.5232 C.3       1 AMA    0.0000
     17 C17        -0.4679  -33.1721   46.3523 C.3       1 AMA    0.0000
     18 C18         1.0245  -33.3569   46.6311 C.3       1 AMA    0.0000
     19 C19         2.0504  -33.9004   47.6280 C.3       1 AMA    0.0000
     20 C20         3.4389  -33.9191   46.9853 C.3       1 AMA    0.0000
     21 C21         4.2859  -32.7836   47.5619 C.3       1 AMA    0.0000
     22 C22         5.5408  -32.6103   46.7023 C.3       1 AMA    0.0000
     23 C23         6.7506  -32.3623   47.6061 C.3       1 AMA    0.0000
     24 C24         6.8809  -33.5230   48.5941 C.3       1 AMA    0.0000
     25 C25         6.6872  -34.8590   47.8384 C.3       1 AMA    0.0000
     26 C26         5.4292  -35.5259   48.3981 C.3       1 AMA    0.0000
     27 C27         5.2424  -35.1307   49.8647 C.3       1 AMA    0.0000
     28 C28         4.0432  -34.7575   50.7379 C.3       1 AMA    0.0000
     29 C29         4.3460  -33.4512   51.4752 C.3       1 AMA    0.0000
     30 C30         2.9857  -32.8740   51.8702 C.3       1 AMA    0.0000
     31 C31         2.9322  -31.3838   51.5305 C.3       1 AMA    0.0000
     32 C32         2.1930  -30.6331   52.6395 C.3       1 AMA    0.0000
     33 C33         0.6850  -30.8391   52.4792 C.3       1 AMA    0.0000
     34 C34         0.0837  -29.6512   51.7246 C.3       1 AMA    0.0000
     35 C35        -1.3653  -29.9703   51.3485 C.3       1 AMA    0.0000
     36 C36        -1.8517  -28.9634   50.3048 C.3       1 AMA    0.0000
     37 C37        -3.3724  -29.0659   50.1676 C.3       1 AMA    0.0000
     38 C38        -3.9020  -28.0550   49.1491 C.3       1 AMA    0.0000
     39 C39        -5.4108  -28.0285   48.8979 C.3       1 AMA    0.0000
     40 C40        -4.7467  -26.8962   49.6843 C.3       1 AMA    0.0000
     41 C41        -5.0008  -26.8421   51.1917 C.3       1 AMA    0.0000
     42 C42        -3.9490  -25.9514   51.8566 C.3       1 AMA    0.0000
     43 C43        -2.6525  -26.7414   52.0404 C.3       1 AMA    0.0000
     44 C44        -1.6102  -25.8583   52.7298 C.3       1 AMA    0.0000
     45 C45        -0.6242  -25.3221   51.6891 C.3       1 AMA    0.0000
     46 C46         0.7070  -26.0658   51.8172 C.3       1 AMA    0.0000
     47 C47         1.5710  -25.7782   50.5885 C.3       1 AMA    0.0000
     48 C48         2.9026  -26.5216   50.7157 C.3       1 AMA    0.0000
     49 C49         3.9950  -25.7423   49.9814 C.3       1 AMA    0.0000
     50 C50         5.2859  -26.5638   49.9671 C.3       1 AMA    0.0000
     51 C51         6.3780  -25.7833   49.2324 C.3       1 AMA    0.0000
     52 C52         7.6687  -26.6052   49.2172 C.3       1 AMA    0.0000
     53 C53         8.7613  -25.8256   48.4838 C.3       1 AMA    0.0000
     54 C54        10.1167  -26.4798   48.7553 C.3       1 AMA    0.0000
     55 C55        11.2329  -25.5851   48.2138 C.3       1 AMA    0.0000
     56 C56        12.6461  -26.1695   48.1644 C.3       1 AMA    0.0000
     57 C57        11.8542  -25.9686   46.8703 C.3       1 AMA    0.0000
     58 C58        11.3124  -27.2172   46.1703 C.3       1 AMA    0.0000
     59 C59        10.8625  -26.8558   44.7540 C.3       1 AMA    0.0000
     60 C60         9.5564  -26.0616   44.8191 C.3       1 AMA    0.0000
     61 C61         8.9519  -25.9554   43.4172 C.3       1 AMA    0.0000
     62 C62         7.7103  -25.0623   43.4594 C.3       1 AMA    0.0000
     63 C63         6.4560  -25.9361   43.5313 C.3       1 AMA    0.0000
     64 C64         5.2371  -25.0557   43.8141 C.3       1 AMA    0.0000
     65 C65         3.9879  -25.9333   43.9196 C.3       1 AMA    0.0000
     66 C66         2.7391  -25.0632   43.7638 C.3       1 AMA    0.0000
     67 C67         1.5095  -25.9591   43.6026 C.3       1 AMA    0.0000
     68 C68         0.2653  -25.0900   43.4148 C.3       1 AMA    0.0000
     69 C69        -0.8673  -25.9535   42.8558 C.3       1 AMA    0.0000
     70 C70        -2.1600  -25.1356   42.8262 C.3       1 AMA    0.0000
     71 C71        -3.3503  -26.0664   42.5837 C.3       1 AMA    0.0000
     72 C72        -3.2405  -26.6903   41.1910 C.3       1 AMA    0.0000
     73 C73        -4.6371  -27.0596   40.6861 C.3       1 AMA    0.0000
     74 C74        -4.5206  -27.9501   39.4477 C.3       1 AMA    0.0000
     75 C75        -5.9146  -28.4142   39.0191 C.3       1 AMA    0.0000
     76 C76        -5.9383  -28.6331   37.5052 C.3       1 AMA    0.0000
     77 C77        -7.3857  -28.7663   37.0258 C.3       1 AMA    0.0000
     78 C78         6.1904  -34.3741   46.5384 C.2       1 AMA    0.0000
     79 O1          4.9725  -33.8192   46.3984 O.3       1 AMA    0.0000
     80 H1          4.8094  -33.1834   45.6897 H         1 AMA    0.0000
     81 O2          6.8391  -34.6479   45.5565 O.2       1 AMA    0.0000
     82 O3          5.0223  -36.5843   47.5275 O.3       1 AMA    0.0000
     83 H2          5.7638  -37.2025   47.4750 H         1 AMA    0.0000
     84 H3        -15.5279  -26.5138   47.5838 H         1 AMA    0.0000
     85 H4        -15.3665  -27.1078   49.2547 H         1 AMA    0.0000
     86 H5        -12.9421  -27.3564   48.9715 H         1 AMA    0.0000
     87 H6        -13.0338  -26.6509   47.3390 H         1 AMA    0.0000
     88 H7        -13.8610  -29.3698   48.3010 H         1 AMA    0.0000
     89 H8        -14.8614  -28.6126   47.0375 H         1 AMA    0.0000
     90 H9        -13.2947  -29.5161   45.6303 H         1 AMA    0.0000
     91 H10       -12.0597  -29.6193   46.9065 H         1 AMA    0.0000
     92 H11       -12.9110  -26.9226   45.8279 H         1 AMA    0.0000
     93 H12       -11.3782  -27.3882   46.6049 H         1 AMA    0.0000
     94 H13       -11.7236  -29.0400   44.2853 H         1 AMA    0.0000
     95 H14       -12.0236  -27.3549   43.7998 H         1 AMA    0.0000
     96 H15        -9.8573  -26.8482   45.1992 H         1 AMA    0.0000
     97 H16        -9.7016  -27.5166   43.5602 H         1 AMA    0.0000
     98 H17        -9.5194  -29.0408   46.1925 H         1 AMA    0.0000
     99 H18        -9.5546  -29.8176   44.5903 H         1 AMA    0.0000
    100 H19        -7.4924  -27.7880   45.5663 H         1 AMA    0.0000
    101 H20        -7.5453  -28.4876   43.9294 H         1 AMA    0.0000
    102 H21        -7.4288  -30.7881   45.0301 H         1 AMA    0.0000
    103 H22        -7.0883  -29.9504   46.5640 H         1 AMA    0.0000
    104 H23        -5.4708  -29.4272   44.0410 H         1 AMA    0.0000
    105 H24        -5.0512  -29.0216   45.7235 H         1 AMA    0.0000
    106 H25        -5.2821  -31.6391   46.0877 H         1 AMA    0.0000
    107 H26        -5.0009  -31.7000   44.3307 H         1 AMA    0.0000
    108 H27        -3.2086  -30.2789   46.3539 H         1 AMA    0.0000
    109 H28        -2.9199  -30.4008   44.6008 H         1 AMA    0.0000
    110 H29        -2.9153  -32.6299   46.6701 H         1 AMA    0.0000
    111 H30        -3.0519  -32.9596   44.9256 H         1 AMA    0.0000
    112 H31        -0.8932  -32.2019   44.4745 H         1 AMA    0.0000
    113 H32        -0.8718  -31.1080   45.8795 H         1 AMA    0.0000
    114 H33        -0.9190  -33.0889   47.3411 H         1 AMA    0.0000
    115 H34        -0.8128  -34.1246   45.9501 H         1 AMA    0.0000
    116 H35         1.3626  -32.3236   46.5536 H         1 AMA    0.0000
    117 H36         1.3782  -33.7804   45.6911 H         1 AMA    0.0000
    118 H37         2.0694  -33.2623   48.5115 H         1 AMA    0.0000
    119 H38         1.7719  -34.9134   47.9186 H         1 AMA    0.0000
    120 H39         3.9221  -34.8737   47.1934 H         1 AMA    0.0000
    121 H40         3.3419  -33.7885   45.9075 H         1 AMA    0.0000
    122 H41         4.5745  -33.0264   48.5846 H         1 AMA    0.0000
    123 H42         3.7090  -31.8588   47.5556 H         1 AMA    0.0000
    124 H43         5.4076  -31.7603   46.0330 H         1 AMA    0.0000
    125 H44         5.7058  -33.5132   46.1143 H         1 AMA    0.0000
    126 H45         7.6531  -32.2968   46.9985 H         1 AMA    0.0000
    127 H46         6.6115  -31.4305   48.1543 H         1 AMA    0.0000
    128 H47         7.8702  -33.5031   49.0512 H         1 AMA    0.0000
    129 H48         6.1198  -33.4291   49.3687 H         1 AMA    0.0000
    130 H49         7.5692  -35.4976   47.7899 H         1 AMA    0.0000
    131 H50         4.7325  -34.7880   48.0003 H         1 AMA    0.0000
    132 H51         5.8938  -34.2626   49.9655 H         1 AMA    0.0000
    133 H52         5.7503  -35.9166   50.4237 H         1 AMA    0.0000
    134 H53         3.1619  -34.6260   50.1101 H         1 AMA    0.0000
    135 H54         3.8593  -35.5507   51.4625 H         1 AMA    0.0000
    136 H55         4.9480  -33.6466   52.3626 H         1 AMA    0.0000
    137 H56         4.8680  -32.7601   50.8134 H         1 AMA    0.0000
    138 H57         2.8351  -33.0056   52.9417 H         1 AMA    0.0000
    139 H58         2.1989  -33.3975   51.3271 H         1 AMA    0.0000
    140 H59         3.9466  -30.9949   51.4427 H         1 AMA    0.0000
    141 H60         2.4069  -31.2452   50.5855 H         1 AMA    0.0000
    142 H61         2.4231  -29.5697   52.5737 H         1 AMA    0.0000
    143 H62         2.5105  -31.0141   53.6101 H         1 AMA    0.0000
    144 H63         0.2225  -30.9157   53.4632 H         1 AMA    0.0000
    145 H64         0.5011  -31.7559   51.9191 H         1 AMA    0.0000
    146 H65         0.6618  -29.4648   50.8195 H         1 AMA    0.0000
    147 H66         0.1081  -28.7662   52.3605 H         1 AMA    0.0000
    148 H67        -1.4205  -30.9775   50.9356 H         1 AMA    0.0000
    149 H68        -1.9942  -29.9062   52.2365 H         1 AMA    0.0000
    150 H69        -1.5825  -27.9552   50.6196 H         1 AMA    0.0000
    151 H70        -1.3846  -29.1812   49.3443 H         1 AMA    0.0000
    152 H71        -3.8313  -28.8689   51.1364 H         1 AMA    0.0000
    153 H72        -3.6362  -30.0728   49.8439 H         1 AMA    0.0000
    154 H73        -3.2600  -27.8388   48.2952 H         1 AMA    0.0000
    155 H74        -5.7927  -27.8434   47.8939 H         1 AMA    0.0000
    156 H75        -5.9939  -28.7295   49.4951 H         1 AMA    0.0000
    157 H76        -4.6447  -25.9398   49.1715 H         1 AMA    0.0000
    158 H77        -5.9935  -26.4322   51.3779 H         1 AMA    0.0000
    159 H78        -4.9396  -27.8482   51.6067 H         1 AMA    0.0000
    160 H79        -4.3145  -25.6223   52.8293 H         1 AMA    0.0000
    161 H80        -3.7586  -25.0822   51.2271 H         1 AMA    0.0000
    162 H81        -2.2765  -27.0540   51.0662 H         1 AMA    0.0000
    163 H82        -2.8468  -27.6209   52.6542 H         1 AMA    0.0000
    164 H83        -1.0703  -26.4462   53.4721 H         1 AMA    0.0000
    165 H84        -2.1095  -25.0232   53.2211 H         1 AMA    0.0000
    166 H85        -0.4629  -24.2572   51.8564 H         1 AMA    0.0000
    167 H86        -1.0315  -25.4754   50.6897 H         1 AMA    0.0000
    168 H87         1.2268  -25.7285   52.7139 H         1 AMA    0.0000
    169 H88         0.5195  -27.1373   51.8870 H         1 AMA    0.0000
    170 H89         1.7585  -24.7067   50.5191 H         1 AMA    0.0000
    171 H90         1.0510  -26.1150   49.6917 H         1 AMA    0.0000
    172 H91         3.1679  -26.6136   51.7689 H         1 AMA    0.0000
    173 H92         2.8075  -27.5149   50.2769 H         1 AMA    0.0000
    174 H93         4.1723  -24.7961   50.4927 H         1 AMA    0.0000
    175 H94         3.6767  -25.5478   48.9572 H         1 AMA    0.0000
    176 H95         5.1089  -27.5099   49.4556 H         1 AMA    0.0000
    177 H96         5.6044  -26.7582   50.9912 H         1 AMA    0.0000
    178 H97         6.0591  -25.5886   48.2084 H         1 AMA    0.0000
    179 H98         6.5554  -24.8373   49.7440 H         1 AMA    0.0000
    180 H99         7.4911  -27.5508   48.7049 H         1 AMA    0.0000
    181 H100        7.9870  -26.8009   50.2412 H         1 AMA    0.0000
    182 H101        8.5598  -25.8365   47.4126 H         1 AMA    0.0000
    183 H102        8.7760  -24.7959   48.8410 H         1 AMA    0.0000
    184 H103       10.2469  -26.6131   49.8293 H         1 AMA    0.0000
    185 H104       10.1571  -27.4505   48.2611 H         1 AMA    0.0000
    186 H105       11.1522  -24.5195   48.4283 H         1 AMA    0.0000
    187 H106       12.8329  -27.1762   48.5383 H         1 AMA    0.0000
    188 H107       13.4512  -25.4542   48.3326 H         1 AMA    0.0000
    189 H108       12.1708  -25.1475   46.2272 H         1 AMA    0.0000
    190 H109       10.4640  -27.6085   46.7317 H         1 AMA    0.0000
    191 H110       12.0951  -27.9741   46.1206 H         1 AMA    0.0000
    192 H111       10.7040  -27.7685   44.1796 H         1 AMA    0.0000
    193 H112       11.6312  -26.2519   44.2717 H         1 AMA    0.0000
    194 H113        9.7582  -25.0620   45.2040 H         1 AMA    0.0000
    195 H114        8.8544  -26.5704   45.4798 H         1 AMA    0.0000
    196 H115        9.6863  -25.5233   42.7375 H         1 AMA    0.0000
    197 H116        8.6727  -26.9488   43.0661 H         1 AMA    0.0000
    198 H117        7.7555  -24.4187   44.3379 H         1 AMA    0.0000
    199 H118        7.6740  -24.4476   42.5600 H         1 AMA    0.0000
    200 H119        6.3183  -26.4529   42.5815 H         1 AMA    0.0000
    201 H120        6.5686  -26.6686   44.3306 H         1 AMA    0.0000
    202 H121        5.1103  -24.3393   43.0025 H         1 AMA    0.0000
    203 H122        5.3853  -24.5201   44.7518 H         1 AMA    0.0000
    204 H123        4.0060  -26.6871   43.1325 H         1 AMA    0.0000
    205 H124        3.9697  -26.4242   44.8926 H         1 AMA    0.0000
    206 H125        2.6194  -24.4381   44.6487 H         1 AMA    0.0000
    207 H126        2.8451  -24.4298   42.8831 H         1 AMA    0.0000
    208 H127        1.6393  -26.6003   42.7308 H         1 AMA    0.0000
    209 H128        1.3905  -26.5763   44.4931 H         1 AMA    0.0000
    210 H129        0.4864  -24.2818   42.7177 H         1 AMA    0.0000
    211 H130       -0.0354  -24.6712   44.3752 H         1 AMA    0.0000
    212 H131       -0.6159  -26.2734   41.8446 H         1 AMA    0.0000
    213 H132       -1.0049  -26.8287   43.4907 H         1 AMA    0.0000
    214 H133       -2.2878  -24.6244   43.7804 H         1 AMA    0.0000
    215 H134       -2.1055  -24.3993   42.0243 H         1 AMA    0.0000
    216 H135       -4.2765  -25.4959   42.6532 H         1 AMA    0.0000
    217 H136       -3.3529  -26.8555   43.3356 H         1 AMA    0.0000
    218 H137       -2.7846  -25.9743   40.5072 H         1 AMA    0.0000
    219 H138       -2.6236  -27.5874   41.2423 H         1 AMA    0.0000
    220 H139       -5.1746  -27.5958   41.4682 H         1 AMA    0.0000
    221 H140       -5.1818  -26.1510   40.4294 H         1 AMA    0.0000
    222 H141       -3.9048  -28.8185   39.6816 H         1 AMA    0.0000
    223 H142       -4.0601  -27.3860   38.6366 H         1 AMA    0.0000
    224 H143       -6.1573  -29.3489   39.5247 H         1 AMA    0.0000
    225 H144       -6.6488  -27.6547   39.2878 H         1 AMA    0.0000
    226 H145       -5.3910  -29.5439   37.2623 H         1 AMA    0.0000
    227 H146       -5.4683  -27.7842   37.0085 H         1 AMA    0.0000
    228 H147      -15.5012  -24.6302   49.1997 H         1 AMA    0.0000
    229 H148      -13.9168  -25.1720   49.8031 H         1 AMA    0.0000
    230 H149      -14.0773  -24.5778   48.1329 H         1 AMA    0.0000
    231 H150       -7.3988  -28.9221   35.9471 H         1 AMA    0.0000
    232 H151       -7.8555  -29.6160   37.5211 H         1 AMA    0.0000
    233 H152       -7.9339  -27.8559   37.2681 H         1 AMA    0.0000
@<TRIPOS>BOND
     1    1    2 1
     2    2    3 1
     3    3    4 1
     4    4    5 1
     5    5    6 1
     6    6    7 1
     7    7    8 1
     8    8    9 1
     9    9   10 1
    10   10   11 1
    11   11   12 1
    12   12   13 1
    13   13   14 1
    14   14   15 1
    15   15   16 1
    16   16   17 1
    17   17   18 1
    18   18   19 1
    19   19   20 1
    20   20   21 1
    21   21   22 1
    22   22   23 1
    23   23   24 1
    24   24   25 1
    25   25   26 2
    26   25   78 2
    27   26   27 1
    28   26   82 1
    29   27   28 1
    30   28   29 1
    31   29   30 1
    32   30   31 1
    33   31   32 1
    34   32   33 1
    35   33   34 1
    36   34   35 1
    37   35   36 1
    38   36   37 1
    39   37   38 1
    40   38   39 1
    41   38   40 1
    42   39   40 1
    43   40   41 1
    44   41   42 1
    45   42   43 1
    46   43   44 1
    47   44   45 1
    48   45   46 1
    49   46   47 1
    50   47   48 1
    51   48   49 1
    52   49   50 1
    53   50   51 1
    54   51   52 1
    55   52   53 1
    56   53   54 1
    57   54   55 1
    58   55   56 1
    59   55   57 1
    60   56   57 1
    61   57   58 1
    62   58   59 1
    63   59   60 1
    64   60   61 1
    65   61   62 1
    66   62   63 1
    67   63   64 1
    68   64   65 1
    69   65   66 1
    70   66   67 1
    71   67   68 1
    72   68   69 1
    73   69   70 1
    74   70   71 1
    75   71   72 1
    76   72   73 1
    77   73   74 1
    78   74   75 1
    79   75   76 1
    80   76   77 1
    81   78   79 1
    82   78   81 2
    83   79   80 1
    84   82   83 1
    85   84    2 1
    86   85    2 1
    87   86    3 1
    88   87    3 1
    89   88    4 1
    90   89    4 1
    91   90    5 1
    92   91    5 1
    93   92    6 1
    94   93    6 1
    95   94    7 1
    96   95    7 1
    97   96    8 1
    98   97    8 1
    99   98    9 1
   100   99    9 1
   101  100   10 1
   102  101   10 1
   103  102   11 1
   104  103   11 1
   105  104   12 1
   106  105   12 1
   107  106   13 1
   108  107   13 1
   109  108   14 1
   110  109   14 1
   111  110   15 1
   112  111   15 1
   113  112   16 1
   114  113   16 1
   115  114   17 1
   116  115   17 1
   117  116   18 1
   118  117   18 1
   119  118   19 1
   120  119   19 1
   121  120   20 1
   122  121   20 1
   123  122   21 1
   124  123   21 1
   125  124   22 1
   126  125   22 1
   127  126   23 1
   128  127   23 1
   129  128   24 1
   130  129   24 1
   131  130   25 1
   132  131   26 1
   133  132   27 1
   134  133   27 1
   135  134   28 1
   136  135   28 1
   137  136   29 1
   138  137   29 1
   139  138   30 1
   140  139   30 1
   141  140   31 1
   142  141   31 1
   143  142   32 1
   144  143   32 1
   145  144   33 1
   146  145   33 1
   147  146   34 1
   148  147   34 1
   149  148   35 1
   150  149   35 1
   151  150   36 1
   152  151   36 1
   153  152   37 1
   154  153   37 1
   155  154   38 1
   156  155   39 1
   157  156   39 1
   158  157   40 1
   159  158   41 1
   160  159   41 1
   161  160   42 1
   162  161   42 1
   163  162   43 1
   164  163   43 1
   165  164   44 1
   166  165   44 1
   167  166   45 1
   168  167   45 1
   169  168   46 1
   170  169   46 1
   171  170   47 1
   172  171   47 1
   173  172   48 1
   174  173   48 1
   175  174   49 1
   176  175   49 1
   177  176   50 1
   178  177   50 1
   179  178   51 1
   180  179   51 1
   181  180   52 1
   182  181   52 1
   183  182   53 1
   184  183   53 1
   185  184   54 1
   186  185   54 1
   187  186   55 1
   188  187   56 1
   189  188   56 1
   190  189   57 1
   191  190   58 1
   192  191   58 1
   193  192   59 1
   194  193   59 1
   195  194   60 1
   196  195   60 1
   197  196   61 1
   198  197   61 1
   199  198   62 1
   200  199   62 1
   201  200   63 1
   202  201   63 1
   203  202   64 1
   204  203   64 1
   205  204   65 1
   206  205   65 1
   207  206   66 1
   208  207   66 1
   209  208   67 1
   210  209   67 1
   211  210   68 1
   212  211   68 1
   213  212   69 1
   214  213   69 1
   215  214   70 1
   216  215   70 1
   217  216   71 1
   218  217   71 1
   219  218   72 1
   220  219   72 1
   221  220   73 1
   222  221   73 1
   223  222   74 1
   224  223   74 1
   225  224   75 1
   226  225   75 1
   227  226   76 1
   228  227   76 1
   229  228    1 1
   230  229    1 1
   231  230    1 1
   232  231   77 1
   233  232   77 1
   234  233   77 1
@<TRIPOS>SUBSTRUCTURE
     1 AMA     1 RESIDUE           4 A     AMA     0 ROOT
